egret/models/tests/pglib_opf_case3_lmbd_acopf_1030.json
{"elements": {"bus": {"1": {"matpower_bustype": "ref", "area": 1.0, "vm": 1.1, "va": 0.0, "base_kv": 240.0, "zone": 1.0, "v_min": 0.9, "v_max": 1.1, "lmp": 39.45295956314463, "qlmp": 6.680981437691649e-11, "pl": 113.3, "ql": 41.2}, "2": {"matpower_bustype": "PV", "area": 1.0, "vm": 0.926170536731858, "va": 0.10707374754526125, "base_kv": 240.0, "zone": 1.0, "v_min": 0.9, "v_max": 1.1, "lmp": 30.285916319617243, "qlmp": -9.64315984514165e-12, "pl": 113.3, "ql": 41.2}, "3": {"matpower_bustype": "PV", "area": 1.0, "vm": 0.9, "va": -0.320984439323265, "base_kv": 240.0, "zone": 1.0, "v_min": 0.9, "v_max": 1.1, "lmp": 49.14836856580047, "qlmp": -4.3470324843768905e-12, "pl": 97.85000000000001, "ql": 51.5}}, "load": {"load_1": {"in_service": true, "p_load": 113.3, "q_load": 41.2, "bus": "1"}, "load_2": {"in_service": true, "p_load": 113.3, "q_load": 41.2, "bus": "2"}, "load_3": {"in_service": true, "p_load": 97.85000000000001, "q_load": 51.5, "bus": "3"}}, "generator": {"1": {"bus": "1", "pg": 156.60436166570406, "qg": 56.175583325335054, "vg": 1.0, "mbase": 100.0, "in_service": true, "p_min": 0.0, "p_max": 2000.0, "q_min": -1000.0, "q_max": 1000.0, "generator_type": "thermal", "p_cost": {"data_type": "cost_curve", "cost_curve_type": "polynomial", "values": {"0": 0.0, "1": 5.0, "2": 0.11}}, "startup_cost": 0.0, "shutdown_cost": 0.0}, "2": {"bus": "2", "pg": 171.09362542700237, "qg": -7.746829632949234, "vg": 1.0, "mbase": 100.0, "in_service": true, "p_min": 0.0, "p_max": 2000.0, "q_min": -1000.0, "q_max": 1000.0, "generator_type": "thermal", "p_cost": {"data_type": "cost_curve", "cost_curve_type": "polynomial", "values": {"0": 0.0, "1": 1.2, "2": 0.08500000000000002}}, "startup_cost": 0.0, "shutdown_cost": 0.0}, "3": {"bus": "3", "pg": 0.0, "qg": -2.084803635066006, "vg": 1.0, "mbase": 100.0, "in_service": true, "p_min": 0.0, "p_max": 0.0, "q_min": -1000.0, "q_max": 1000.0, "generator_type": "thermal", "p_cost": {"data_type": "cost_curve", "cost_curve_type": "polynomial", "values": {"0": 0.0, "1": 0.0, "2": 0.0}}, "startup_cost": 0.0, "shutdown_cost": 0.0}}, "branch": {"1": {"from_bus": "1", "to_bus": "3", "resistance": 0.065, "reactance": 0.62, "charging_susceptance": 0.45, "branch_type": "line", "rating_long_term": 9000.0, "rating_short_term": 9000.0, "rating_emergency": 9000.0, "in_service": true, "angle_diff_min": -30.0, "angle_diff_max": 30.0, "pf": 54.35602265833488, "qf": 10.71573617668044, "pt": -51.995568264024506, "qt": -33.65063251685607, "pfl": 2.360454394310374, "qfl": -22.93489634017563, "pf_dual": 3945.295956314608, "qf_dual": 6.71414531866557e-09}, "2": {"from_bus": "3", "to_bus": "2", "resistance": 0.025, "reactance": 0.75, "charging_susceptance": 0.7, "branch_type": "line", "rating_long_term": 50.0, "rating_short_term": 50.0, "rating_emergency": 50.0, "in_service": true, "angle_diff_min": -30.0, "angle_diff_max": 30.0, "pf": -45.854431735975496, "qf": -19.934171118209935, "pt": 46.52525121729285, "qt": -18.313959083829854, "pfl": 0.6708194813173474, "qfl": -38.24813020203979, "pf_dual": 4454.916247404664, "qf_dual": -199.94001807121833}, "3": {"from_bus": "1", "to_bus": "2", "resistance": 0.042, "reactance": 0.9, "charging_susceptance": 0.3, "branch_type": "line", "rating_long_term": 9000.0, "rating_short_term": 9000.0, "rating_emergency": 9000.0, "in_service": true, "angle_diff_min": -30.0, "angle_diff_max": 30.0, "pf": -11.05166099263084, "qf": 4.259847148654612, "pt": 11.268374209709533, "qt": -30.632870549119385, "pfl": 0.21671321707869146, "qfl": -26.373023400464774, "pf_dual": 3945.295956314432, "qf_dual": 6.695458701984076e-09}}}, "system": {"model_name": "pglib_opf_case3_lmbd", "mpc_version": "'2'", "baseMVA": 100.0, "reference_bus": "1", "reference_bus_angle": 0.0, "total_cost": 6174.283465289623, "ploss": 3.247987092706413, "qloss": -87.55604994268018, "mult": 1.03}, "results": {"time": 0.022411108016967773, "#_cons": 36, "#_vars": 23, "termination": "optimal"}}